90

H	39.533707     47.962128     38.463269
H	41.168707     48.193128     39.163269
C	40.533707     48.382128     38.294269
H	40.424707     47.074128     36.542269
H	42.072707     47.240128     37.181269
C	41.135707     47.775128     36.999269
H	41.239707     48.765128     35.014269
C	41.388707     48.980128     36.082269
H	40.495707     50.889128     36.149269
H	38.538707     48.663128     36.548269
H	38.289707     50.433128     36.275269
H	38.970707     49.440128     34.952269
C	38.921707     49.566128     36.043269
N	40.294707     49.937128     36.511269
H	39.545707     50.361128     38.457269
C	40.441707     49.896128     38.029269
H	41.804707     50.758128     39.475269
H	41.563707     51.739128     38.037269
C	41.696707     50.697128     38.384269
H	43.762707     50.883128     37.795269
H	43.543707     49.036128     35.967269
H	42.762707     50.582128     35.652269
C	42.730707     49.691128     36.303269
C	42.972707     50.123128     37.751269
O	43.427707     48.968128     38.484269
O	44.638707     50.259128     39.881269
C	44.243707     49.168128     39.549269
H	43.796707     47.136128     39.976269
H	45.278707     48.771128     42.094269
H	43.515707     48.574128     42.016269
H	45.273707     46.868128     43.097269
O	44.543707     46.836128     42.446269
C	44.478707     48.078128     41.784269
C	44.568707     47.866128     40.257269
C	45.922707     47.314128     39.832269
H	45.196707     45.290128     39.693269
C	46.069707     45.939128     39.600269
H	47.421707     44.330128     39.093269
C	47.315707     45.404128     39.263269
H	49.401707     45.818128     38.867269
C	48.430707     46.239128     39.143269
H	49.156707     48.276128     39.296269
C	48.293707     47.610128     39.377269
H	46.954707     49.212128     39.933269
C	47.050707     48.142128     39.731269
O	30.910707     48.250128     37.686269
O	30.238707     46.285128     37.718269
C	31.177707     47.054128     37.535269
H	32.675707     45.509128     37.323269
H	32.771707     46.785128     36.110269
C	32.582707     46.588128     37.169269
H	33.496707     48.413128     37.976269
H	33.539707     47.053128     39.079269
C	33.642707     47.325128     38.017269
O	35.402707     46.229128     36.737269
C	35.101707     47.072128     37.644269
O	35.909707     47.734128     38.339269
O	37.839707     47.178128     37.447269
H	37.451707     43.715128     38.283269
O	36.795707     44.478128     38.322269
H	35.949707     44.038128     38.061269
Fe	37.392707     45.656128     36.633269
H	34.885707     44.964128     34.477269
C	35.522707     44.085128     34.413269
N	36.575707     43.913128     35.289269
H	37.992707     42.306128     35.474269
C	37.139707     42.759128     34.979269
H	36.679707     41.252128     33.561269
N	36.474707     42.172128     33.952269
C	35.437707     43.004128     33.560269
H	34.300707     41.553128     32.498269
H	33.522707     43.121128     32.643269
C	34.493707     42.639128     32.464269
O	38.664707     42.720128     37.971269
O	39.150707     44.553128     36.764269
C	39.447707     43.420128     37.288269
H	41.373707     43.209128     38.097269
H	40.832707     41.794128     37.191269
C	40.869707     42.891128     37.171269
H	39.724707     45.398128     34.335269
C	38.973707     46.059128     33.918269
N	37.862707     46.387128     34.660269
H	36.196707     47.672128     34.233269
C	37.132707     47.208128     33.928269
H	37.386707     48.043128     32.010269
N	37.728707     47.400128     32.724269
C	38.917707     46.686128     32.689269
H	39.835707     47.706128     31.051269
H	40.889707     46.602128     31.922269
C	39.868707     46.716128     31.534269
